REMARK  5 active torsions:
REMARK  status: ('A' for Active; 'I' for Inactive)
REMARK    1  A    between atoms: N1_1  and  C3_3 
REMARK    2  A    between atoms: N2_2  and  C6_6 
REMARK    3  A    between atoms: C3_3  and  C4_4 
REMARK    4  A    between atoms: C3_3  and  C5_5 
REMARK    5  A    between atoms: C4_4  and  C6_6 
ROOT
HETATM    1  C3          0       0.554  -0.117  -0.270  1.00  0.00     0.219 C 
ENDROOT
BRANCH   1   2
HETATM    2  C4          0      -0.791   0.507   0.155  1.00  0.00     0.065 C 
BRANCH   2   3
HETATM    3  C6          0      -2.013  -0.289  -0.316  1.00  0.00     0.269 C 
BRANCH   3   4
HETATM    4  N2          0      -3.241   0.367   0.122  1.00  0.00     0.078 N 
HETATM    5  H21         0      -3.239   0.453   1.138  1.00  0.00     0.312 HD
HETATM    6  H20         0      -3.268   1.319  -0.240  1.00  0.00     0.312 HD
ENDBRANCH   3   4
ENDBRANCH   2   3
ENDBRANCH   1   2
BRANCH   1   7
HETATM    7  C5          0       1.717   0.764   0.226  1.00  0.00     0.031 C 
HETATM    8  C7          0       3.094   0.248  -0.171  1.00  0.00     0.007 C 
ENDBRANCH   1   7
BRANCH   1   9
HETATM    9  N1          0       0.680  -1.479   0.255  1.00  0.00     0.083 N 
HETATM   10  H19         0       1.539  -1.909  -0.084  1.00  0.00     0.313 HD
HETATM   11  H18         0       0.752  -1.453   1.271  1.00  0.00     0.313 HD
ENDBRANCH   1   9
TORSDOF 5
