REMARK  6 active torsions:
REMARK  status: ('A' for Active; 'I' for Inactive)
REMARK    1  A    between atoms: N_1  and  C_6 
REMARK    2  A    between atoms: N_2  and  C_7 
REMARK    3  A    between atoms: C_3  and  C_4 
REMARK    4  A    between atoms: C_3  and  C_5 
REMARK    5  A    between atoms: C_4  and  C_6 
REMARK    6  A    between atoms: C_5  and  C_7 
ROOT
ATOM      1  C           0       0.000  -0.485  -0.000  0.00  0.00     0.003 C 
ENDROOT
BRANCH   1   2
ATOM      2  C           0      -1.264   0.377  -0.012  0.00  0.00     0.030 C 
BRANCH   2   3
ATOM      3  C           0      -2.523  -0.487   0.014  0.00  0.00     0.267 C 
BRANCH   3   4
ATOM      4  N           0      -3.715   0.353  -0.006  0.00  0.00     0.078 N 
ATOM      5  H           0      -3.702   0.945  -0.836  0.00  0.00     0.312 HD
ATOM      6  H           0      -3.699   0.988   0.791  0.00  0.00     0.312 HD
ENDBRANCH   3   4
ENDBRANCH   2   3
ENDBRANCH   1   2
BRANCH   1   7
ATOM      7  C           0       1.264   0.377   0.011  0.00  0.00     0.030 C 
BRANCH   7   8
ATOM      8  C           0       2.523  -0.487  -0.014  0.00  0.00     0.267 C 
BRANCH   8   9
ATOM      9  N           0       3.714   0.353   0.006  0.00  0.00     0.078 N 
ATOM     10  H           0       3.702   0.945   0.836  0.00  0.00     0.312 HD
ATOM     11  H           0       3.699   0.988  -0.791  0.00  0.00     0.312 HD
ENDBRANCH   8   9
ENDBRANCH   7   8
ENDBRANCH   1   7
TORSDOF 6
