REMARK  8 active torsions:
REMARK  status: ('A' for Active; 'I' for Inactive)
REMARK    1  A    between atoms: O1_1  and  C10_10 
REMARK    2  A    between atoms: N3_3  and  C8_8 
REMARK    3  A    between atoms: N4_4  and  C9_9 
REMARK    4  A    between atoms: C5_5  and  C6_6 
REMARK    5  A    between atoms: C5_5  and  C7_7 
REMARK    6  A    between atoms: C6_6  and  C8_8 
REMARK    7  A    between atoms: C7_7  and  C9_9 
REMARK    8  A    between atoms: C8_8  and  C10_10 
ROOT
HETATM    1  C8          0      -1.694  -0.721  -0.494  1.00  0.00     0.314 C 
ENDROOT
BRANCH   1   2
HETATM    2  N3          0      -1.856  -1.760   0.524  1.00  0.00     0.093 N 
HETATM    3  H21         0      -1.505  -2.647   0.165  1.00  0.00     0.314 HD
HETATM    4  H20         0      -1.291  -1.545   1.344  1.00  0.00     0.314 HD
ENDBRANCH   1   2
BRANCH   1   5
HETATM    5  C10         0      -2.182   0.584   0.101  1.00  0.00     0.173 C 
HETATM    6  O2          0      -2.538   0.697   1.268  1.00  0.00    -0.648 OA
BRANCH   5   7
HETATM    7  O1          0      -2.208   1.619  -0.776  1.00  0.00    -0.775 OA
HETATM    8  H24         0      -2.534   2.444  -0.359  1.00  0.00     0.167 HD
ENDBRANCH   5   7
ENDBRANCH   1   5
BRANCH   1   9
HETATM    9  C6          0      -0.246  -0.647  -0.994  1.00  0.00     0.046 C 
BRANCH   9  10
HETATM   10  C5          0       0.784  -0.259   0.075  1.00  0.00     0.004 C 
BRANCH  10  11
HETATM   11  C7          0       2.209  -0.124  -0.467  1.00  0.00     0.030 C 
BRANCH  11  12
HETATM   12  C9          0       3.189   0.239   0.649  1.00  0.00     0.267 C 
BRANCH  12  13
HETATM   13  N4          0       4.539   0.371   0.114  1.00  0.00     0.078 N 
HETATM   14  H22         0       4.834  -0.513  -0.298  1.00  0.00     0.312 HD
HETATM   15  H23         0       5.188   0.561   0.877  1.00  0.00     0.312 HD
ENDBRANCH  12  13
ENDBRANCH  11  12
ENDBRANCH  10  11
ENDBRANCH   9  10
ENDBRANCH   1   9
TORSDOF 8
