REMARK  7 active torsions:
REMARK  status: ('A' for Active; 'I' for Inactive)
REMARK    1  A    between atoms: C2_2  and  C3_3 
REMARK    2  A    between atoms: C3_3  and  N11_11 
REMARK    3  A    between atoms: C3_3  and  C4_4 
REMARK    4  A    between atoms: C4_4  and  C5_5 
REMARK    5  A    between atoms: C5_5  and  C6_6 
REMARK    6  A    between atoms: C6_6  and  C7_7 
REMARK    7  A    between atoms: C7_7  and  N8_8 
ROOT
HETATM    1  C3          0      -1.379   0.320   0.466  1.00  0.00     0.283 C 
ENDROOT
BRANCH   1   2
HETATM    2  C2          0      -2.634  -0.376   0.005  1.00  0.00     0.204 C 
HETATM    3  O1          0      -2.878  -1.508   0.387  1.00  0.00    -0.646 OA
HETATM    4  O15         0      -3.402   0.191  -0.752  1.00  0.00    -0.646 OA
ENDBRANCH   1   2
BRANCH   1   5
HETATM    5  N11         0      -1.430   1.734   0.071  1.00  0.00    -0.065 N 
HETATM    6  H12         0      -1.503   1.800  -0.934  1.00  0.00     0.275 HD
HETATM    7  H13         0      -2.233   2.173   0.495  1.00  0.00     0.275 HD
HETATM    8  H14         0      -0.590   2.200   0.379  1.00  0.00     0.275 HD
ENDBRANCH   1   5
BRANCH   1   9
HETATM    9  C4          0      -0.161  -0.345  -0.178  1.00  0.00     0.044 C 
BRANCH   9  10
HETATM   10  C5          0       1.118   0.279   0.383  1.00  0.00     0.004 C 
BRANCH  10  11
HETATM   11  C6          0       2.336  -0.387  -0.261  1.00  0.00     0.030 C 
BRANCH  11  12
HETATM   12  C7          0       3.615   0.237   0.301  1.00  0.00     0.267 C 
BRANCH  12  13
HETATM   13  N8          0       4.784  -0.402  -0.318  1.00  0.00     0.078 N 
HETATM   14  H9          0       4.744  -0.334  -1.323  1.00  0.00     0.312 HD
HETATM   15  H10         0       5.642  -0.007   0.037  1.00  0.00     0.312 HD
ENDBRANCH  12  13
ENDBRANCH  11  12
ENDBRANCH  10  11
ENDBRANCH   9  10
ENDBRANCH   1   9
TORSDOF 7
