REMARK  3 active torsions:
REMARK  status: ('A' for Active; 'I' for Inactive)
REMARK    1  A    between atoms: N1_1  and  C4_4 
REMARK    2  A    between atoms: C2_2  and  C4_4 
REMARK    3  A    between atoms: C2_2  and  C3_3 
ROOT
HETATM    1  C4          0      -1.276   0.507   0.011  1.00  0.00     0.267 C 
ENDROOT
BRANCH   1   2
HETATM    2  N1          0      -2.464  -0.338  -0.003  1.00  0.00     0.078 N 
HETATM    3  H16         0      -2.471  -0.935   0.823  1.00  0.00     0.312 HD
HETATM    4  H15         0      -3.296   0.247   0.060  1.00  0.00     0.312 HD
ENDBRANCH   1   2
BRANCH   1   5
HETATM    5  C2          0      -0.013  -0.352  -0.005  1.00  0.00     0.029 C 
BRANCH   5   6
HETATM    6  C3          0       1.246   0.516  -0.011  1.00  0.00    -0.003 C 
HETATM    7  C5          0       2.508  -0.332   0.008  1.00  0.00     0.005 C 
ENDBRANCH   5   6
ENDBRANCH   1   5
TORSDOF 3
