REMARK  6 active torsions:
REMARK  status: ('A' for Active; 'I' for Inactive)
REMARK    1  A    between atoms: N3_3  and  C6_6 
REMARK    2  A    between atoms: N4_4  and  C8_8 
REMARK    3  A    between atoms: C5_5  and  C7_7 
REMARK    4  A    between atoms: C5_5  and  C6_6 
REMARK    5  A    between atoms: C6_6  and  C9_9 
REMARK    6  A    between atoms: C7_7  and  C8_8 
ROOT
HETATM    1  C6          0       1.117  -0.698  -0.500  1.00  0.00     0.283 C 
ENDROOT
BRANCH   1   2
HETATM    2  N3          0       1.255  -1.843   0.454  1.00  0.00    -0.065 N 
HETATM    3  H19         0       2.245  -2.026   0.666  1.00  0.00     0.275 HD
HETATM    4  H18         0       0.782  -1.657   1.348  1.00  0.00     0.275 HD
HETATM    5  H17         0       0.863  -2.713   0.067  1.00  0.00     0.275 HD
ENDBRANCH   1   2
BRANCH   1   6
HETATM    6  C5          0      -0.359  -0.615  -0.913  1.00  0.00     0.045 C 
BRANCH   6   7
HETATM    7  C7          0      -1.301  -0.113   0.190  1.00  0.00     0.032 C 
BRANCH   7   8
HETATM    8  C8          0      -2.736  -0.001  -0.325  1.00  0.00     0.267 C 
BRANCH   8   9
HETATM    9  N4          0      -3.617   0.485   0.730  1.00  0.00     0.078 N 
HETATM   10  H21         0      -4.577   0.504   0.387  1.00  0.00     0.312 HD
HETATM   11  H20         0      -3.607  -0.167   1.514  1.00  0.00     0.312 HD
ENDBRANCH   8   9
ENDBRANCH   7   8
ENDBRANCH   6   7
ENDBRANCH   1   6
BRANCH   1  12
HETATM   12  C9          0       1.739   0.619  -0.004  1.00  0.00     0.204 C 
HETATM   13  O2          0       1.251   1.677  -0.493  1.00  0.00    -0.646 OA
HETATM   14  O1          0       2.652   0.490   0.861  1.00  0.00    -0.646 OA
ENDBRANCH   1  12
TORSDOF 6
