REMARK  7 active torsions:
REMARK  status: ('A' for Active; 'I' for Inactive)
REMARK    1  A    between atoms: O1_1  and  C9_9 
REMARK    2  A    between atoms: N3_3  and  C7_7 
REMARK    3  A    between atoms: N4_4  and  C8_8 
REMARK    4  A    between atoms: C5_5  and  C6_6 
REMARK    5  A    between atoms: C5_5  and  C7_7 
REMARK    6  A    between atoms: C6_6  and  C8_8 
REMARK    7  A    between atoms: C7_7  and  C9_9 
ROOT
HETATM    1  C7          0       1.096  -0.720   0.555  1.00  0.00     0.314 C 
ENDROOT
BRANCH   1   2
HETATM    2  C9          0       1.752   0.473  -0.117  1.00  0.00     0.173 C 
HETATM    3  O2          0       2.187   0.493  -1.261  1.00  0.00    -0.648 OA
BRANCH   2   4
HETATM    4  O1          0       1.805   1.554   0.705  1.00  0.00    -0.775 OA
HETATM    5  H21         0       2.226   2.325   0.268  1.00  0.00     0.167 HD
ENDBRANCH   2   4
ENDBRANCH   1   2
BRANCH   1   6
HETATM    6  N3          0       1.191  -1.862  -0.354  1.00  0.00     0.093 N 
HETATM    7  H18         0       0.722  -2.667   0.060  1.00  0.00     0.314 HD
HETATM    8  H17         0       0.697  -1.665  -1.223  1.00  0.00     0.314 HD
ENDBRANCH   1   6
BRANCH   1   9
HETATM    9  C5          0      -0.348  -0.424   0.989  1.00  0.00     0.048 C 
BRANCH   9  10
HETATM   10  C6          0      -1.313  -0.088  -0.157  1.00  0.00     0.032 C 
BRANCH  10  11
HETATM   11  C8          0      -2.732   0.132   0.370  1.00  0.00     0.267 C 
BRANCH  11  12
HETATM   12  N4          0      -3.638   0.442  -0.729  1.00  0.00     0.078 N 
HETATM   13  H20         0      -4.567   0.637  -0.356  1.00  0.00     0.312 HD
HETATM   14  H19         0      -3.333   1.295  -1.196  1.00  0.00     0.312 HD
ENDBRANCH  11  12
ENDBRANCH  10  11
ENDBRANCH   9  10
ENDBRANCH   1   9
TORSDOF 7
