REMARK  5 active torsions:
REMARK  status: ('A' for Active; 'I' for Inactive)
REMARK    1  A    between atoms: N1_1  and  C5_5 
REMARK    2  A    between atoms: N2_2  and  C6_6 
REMARK    3  A    between atoms: C3_3  and  C4_4 
REMARK    4  A    between atoms: C3_3  and  C5_5 
REMARK    5  A    between atoms: C4_4  and  C6_6 
ROOT
HETATM    1  C3          0       0.646   0.372  -0.009  1.00  0.00     0.031 C 
ENDROOT
BRANCH   1   2
HETATM    2  C4          0      -0.671  -0.410  -0.012  1.00  0.00     0.031 C 
BRANCH   2   3
HETATM    3  C6          0      -1.872   0.536   0.002  1.00  0.00     0.267 C 
BRANCH   3   4
HETATM    4  N2          0      -3.116  -0.224   0.008  1.00  0.00     0.078 N 
HETATM    5  H18         0      -3.148  -0.834  -0.809  1.00  0.00     0.312 HD
HETATM    6  H17         0      -3.137  -0.842   0.818  1.00  0.00     0.312 HD
ENDBRANCH   3   4
ENDBRANCH   2   3
ENDBRANCH   1   2
BRANCH   1   7
HETATM    7  C5          0       1.888  -0.522   0.005  1.00  0.00     0.267 C 
BRANCH   7   8
HETATM    8  N1          0       3.126   0.248   0.005  1.00  0.00     0.078 N 
HETATM    9  H15         0       3.140   0.869   0.814  1.00  0.00     0.312 HD
HETATM   10  H16         0       3.148   0.856  -0.813  1.00  0.00     0.312 HD
ENDBRANCH   7   8
ENDBRANCH   1   7
TORSDOF 5
