REMARK  9 active torsions:
REMARK  status: ('A' for Active; 'I' for Inactive)
REMARK    1  A    between atoms: N1_1  and  C7_7 
REMARK    2  A    between atoms: N1_1  and  C5_5 
REMARK    3  A    between atoms: N2_2  and  C9_9 
REMARK    4  A    between atoms: N3_3  and  C10_10 
REMARK    5  A    between atoms: C4_4  and  C5_5 
REMARK    6  A    between atoms: C4_4  and  C6_6 
REMARK    7  A    between atoms: C6_6  and  C9_9 
REMARK    8  A    between atoms: C7_7  and  C8_8 
REMARK    9  A    between atoms: C8_8  and  C10_10 
ROOT
HETATM    1  N1          0      -0.632  -0.384  -0.018  1.00  0.00     0.083 N 
HETATM    2  H19         0      -0.648  -0.984  -0.843  1.00  0.00     0.315 HD
ENDROOT
BRANCH   1   3
HETATM    3  C7          0      -1.815   0.464  -0.002  1.00  0.00     0.271 C 
BRANCH   3   4
HETATM    4  C8          0      -3.107  -0.355   0.003  1.00  0.00     0.059 C 
BRANCH   4   5
HETATM    5  C10         0      -4.366   0.516   0.001  1.00  0.00     0.268 C 
BRANCH   5   6
HETATM    6  N3          0      -5.558  -0.324   0.022  1.00  0.00     0.078 N 
HETATM    7  H29         0      -6.388   0.266  -0.030  1.00  0.00     0.312 HD
HETATM    8  H28         0      -5.576  -0.916  -0.807  1.00  0.00     0.312 HD
ENDBRANCH   5   6
ENDBRANCH   4   5
ENDBRANCH   3   4
ENDBRANCH   1   3
BRANCH   1   9
HETATM    9  C5          0       0.585   0.419  -0.015  1.00  0.00     0.269 C 
BRANCH   9  10
HETATM   10  C4          0       1.818  -0.484  -0.021  1.00  0.00     0.032 C 
BRANCH  10  11
HETATM   11  C6          0       3.107   0.344  -0.008  1.00  0.00     0.031 C 
BRANCH  11  12
HETATM   12  C9          0       4.379  -0.505   0.014  1.00  0.00     0.267 C 
BRANCH  12  13
HETATM   13  N2          0       5.589   0.309   0.024  1.00  0.00     0.078 N 
HETATM   14  H26         0       5.575   0.929   0.832  1.00  0.00     0.312 HD
HETATM   15  H27         0       5.596   0.918  -0.794  1.00  0.00     0.312 HD
ENDBRANCH  12  13
ENDBRANCH  11  12
ENDBRANCH  10  11
ENDBRANCH   9  10
ENDBRANCH   1   9
TORSDOF 9
