MODEL 1
REMARK VINA RESULT:      -3.8      0.000      0.000
REMARK  4 active torsions:
REMARK  status: ('A' for Active; 'I' for Inactive)
REMARK    1  A    between atoms: N1_1  and  C4_4 
REMARK    2  A    between atoms: N2_2  and  C5_5 
REMARK    3  A    between atoms: C3_3  and  C5_5 
REMARK    4  A    between atoms: C3_3  and  C4_4 
ROOT
HETATM    1  C3          0       5.368 -37.838  25.650  1.00  0.00     0.059 C 
ENDROOT
BRANCH   1   2
HETATM    2  C5          0       5.974 -38.935  26.525  1.00  0.00     0.268 C 
BRANCH   2   3
HETATM    3  N2          0       6.271 -40.142  25.762  1.00  0.00     0.078 N 
HETATM    4  H15         0       6.623 -40.863  26.390  1.00  0.00     0.312 HD
HETATM    5  H14         0       5.408 -40.515  25.367  1.00  0.00     0.312 HD
ENDBRANCH   2   3
ENDBRANCH   1   2
BRANCH   1   6
HETATM    6  C4          0       3.980 -37.397  26.120  1.00  0.00     0.268 C 
BRANCH   6   7
HETATM    7  N1          0       3.911 -37.421  27.576  1.00  0.00     0.078 N 
HETATM    8  H12         0       3.151 -36.821  27.894  1.00  0.00     0.312 HD
HETATM    9  H13         0       4.768 -37.026  27.962  1.00  0.00     0.312 HD
ENDBRANCH   6   7
ENDBRANCH   1   6
TORSDOF 4
ENDMDL
MODEL 2
REMARK VINA RESULT:      -3.8      0.065      3.016
REMARK  4 active torsions:
REMARK  status: ('A' for Active; 'I' for Inactive)
REMARK    1  A    between atoms: N1_1  and  C4_4 
REMARK    2  A    between atoms: N2_2  and  C5_5 
REMARK    3  A    between atoms: C3_3  and  C5_5 
REMARK    4  A    between atoms: C3_3  and  C4_4 
ROOT
HETATM    1  C3          0       5.283 -37.904  25.573  1.00  0.00     0.059 C 
ENDROOT
BRANCH   1   2
HETATM    2  C5          0       3.965 -37.360  26.127  1.00  0.00     0.268 C 
BRANCH   2   3
HETATM    3  N2          0       3.912 -37.434  27.582  1.00  0.00     0.078 N 
HETATM    4  H15         0       3.030 -37.857  27.869  1.00  0.00     0.312 HD
HETATM    5  H14         0       4.642 -38.062  27.918  1.00  0.00     0.312 HD
ENDBRANCH   2   3
ENDBRANCH   1   2
BRANCH   1   6
HETATM    6  C4          0       5.946 -38.923  26.502  1.00  0.00     0.268 C 
BRANCH   6   7
HETATM    7  N1          0       6.272 -40.139  25.766  1.00  0.00     0.078 N 
HETATM    8  H12         0       6.109 -40.953  26.356  1.00  0.00     0.312 HD
HETATM    9  H13         0       7.266 -40.143  25.542  1.00  0.00     0.312 HD
ENDBRANCH   6   7
ENDBRANCH   1   6
TORSDOF 4
ENDMDL
MODEL 3
REMARK VINA RESULT:      -3.8     11.405     12.008
REMARK  4 active torsions:
REMARK  status: ('A' for Active; 'I' for Inactive)
REMARK    1  A    between atoms: N1_1  and  C4_4 
REMARK    2  A    between atoms: N2_2  and  C5_5 
REMARK    3  A    between atoms: C3_3  and  C5_5 
REMARK    4  A    between atoms: C3_3  and  C4_4 
ROOT
HETATM    1  C3          0       7.000 -27.713  29.872  1.00  0.00     0.059 C 
ENDROOT
BRANCH   1   2
HETATM    2  C5          0       7.920 -28.130  31.020  1.00  0.00     0.268 C 
BRANCH   2   3
HETATM    3  N2          0       9.099 -28.845  30.544  1.00  0.00     0.078 N 
HETATM    4  H15         0       9.847 -28.179  30.355  1.00  0.00     0.312 HD
HETATM    5  H14         0       9.449 -29.453  31.283  1.00  0.00     0.312 HD
ENDBRANCH   2   3
ENDBRANCH   1   2
BRANCH   1   6
HETATM    6  C4          0       6.840 -26.196  29.755  1.00  0.00     0.268 C 
BRANCH   6   7
HETATM    7  N1          0       7.573 -25.700  28.597  1.00  0.00     0.078 N 
HETATM    8  H12         0       7.370 -26.284  27.786  1.00  0.00     0.312 HD
HETATM    9  H13         0       8.574 -25.786  28.767  1.00  0.00     0.312 HD
ENDBRANCH   6   7
ENDBRANCH   1   6
TORSDOF 4
ENDMDL
MODEL 4
REMARK VINA RESULT:      -3.4      1.858      2.306
REMARK  4 active torsions:
REMARK  status: ('A' for Active; 'I' for Inactive)
REMARK    1  A    between atoms: N1_1  and  C4_4 
REMARK    2  A    between atoms: N2_2  and  C5_5 
REMARK    3  A    between atoms: C3_3  and  C5_5 
REMARK    4  A    between atoms: C3_3  and  C4_4 
ROOT
HETATM    1  C3          0       4.949 -37.739  25.514  1.00  0.00     0.059 C 
ENDROOT
BRANCH   1   2
HETATM    2  C5          0       5.828 -38.502  24.523  1.00  0.00     0.268 C 
BRANCH   2   3
HETATM    3  N2          0       5.553 -38.123  23.143  1.00  0.00     0.078 N 
HETATM    4  H15         0       5.061 -37.230  23.127  1.00  0.00     0.312 HD
HETATM    5  H14         0       6.432 -37.965  22.651  1.00  0.00     0.312 HD
ENDBRANCH   2   3
ENDBRANCH   1   2
BRANCH   1   6
HETATM    6  C4          0       4.785 -38.466  26.850  1.00  0.00     0.268 C 
BRANCH   6   7
HETATM    7  N1          0       5.667 -39.625  26.905  1.00  0.00     0.078 N 
HETATM    8  H12         0       6.508 -39.443  26.358  1.00  0.00     0.312 HD
HETATM    9  H13         0       5.207 -40.421  26.465  1.00  0.00     0.312 HD
ENDBRANCH   6   7
ENDBRANCH   1   6
TORSDOF 4
ENDMDL
MODEL 5
REMARK VINA RESULT:      -3.4      2.477      3.732
REMARK  4 active torsions:
REMARK  status: ('A' for Active; 'I' for Inactive)
REMARK    1  A    between atoms: N1_1  and  C4_4 
REMARK    2  A    between atoms: N2_2  and  C5_5 
REMARK    3  A    between atoms: C3_3  and  C5_5 
REMARK    4  A    between atoms: C3_3  and  C4_4 
ROOT
HETATM    1  C3          0       6.444 -39.636  24.422  1.00  0.00     0.059 C 
ENDROOT
BRANCH   1   2
HETATM    2  C5          0       5.895 -38.848  25.612  1.00  0.00     0.268 C 
BRANCH   2   3
HETATM    3  N2          0       5.735 -39.684  26.795  1.00  0.00     0.078 N 
HETATM    4  H15         0       5.465 -39.104  27.588  1.00  0.00     0.312 HD
HETATM    5  H14         0       4.963 -40.334  26.651  1.00  0.00     0.312 HD
ENDBRANCH   2   3
ENDBRANCH   1   2
BRANCH   1   6
HETATM    6  C4          0       6.231 -38.924  23.084  1.00  0.00     0.268 C 
BRANCH   6   7
HETATM    7  N1          0       6.797 -39.714  21.998  1.00  0.00     0.078 N 
HETATM    8  H12         0       6.062 -40.256  21.546  1.00  0.00     0.312 HD
HETATM    9  H13         0       7.457 -40.391  22.380  1.00  0.00     0.312 HD
ENDBRANCH   6   7
ENDBRANCH   1   6
TORSDOF 4
ENDMDL
MODEL 6
REMARK VINA RESULT:      -3.2     11.326     11.949
REMARK  4 active torsions:
REMARK  status: ('A' for Active; 'I' for Inactive)
REMARK    1  A    between atoms: N1_1  and  C4_4 
REMARK    2  A    between atoms: N2_2  and  C5_5 
REMARK    3  A    between atoms: C3_3  and  C5_5 
REMARK    4  A    between atoms: C3_3  and  C4_4 
ROOT
HETATM    1  C3          0       0.152 -48.855  26.739  1.00  0.00     0.059 C 
ENDROOT
BRANCH   1   2
HETATM    2  C5          0      -0.459 -47.598  27.359  1.00  0.00     0.268 C 
BRANCH   2   3
HETATM    3  N2          0      -1.468 -47.918  28.361  1.00  0.00     0.078 N 
HETATM    4  H15         0      -1.986 -47.074  28.604  1.00  0.00     0.312 HD
HETATM    5  H14         0      -2.154 -48.559  27.962  1.00  0.00     0.312 HD
ENDBRANCH   2   3
ENDBRANCH   1   2
BRANCH   1   6
HETATM    6  C4          0       1.589 -49.110  27.200  1.00  0.00     0.268 C 
BRANCH   6   7
HETATM    7  N1          0       1.927 -50.519  27.040  1.00  0.00     0.078 N 
HETATM    8  H12         0       1.149 -51.011  26.602  1.00  0.00     0.312 HD
HETATM    9  H13         0       2.054 -50.943  27.958  1.00  0.00     0.312 HD
ENDBRANCH   6   7
ENDBRANCH   1   6
TORSDOF 4
ENDMDL
MODEL 7
REMARK VINA RESULT:      -3.2     13.000     13.401
REMARK  4 active torsions:
REMARK  status: ('A' for Active; 'I' for Inactive)
REMARK    1  A    between atoms: N1_1  and  C4_4 
REMARK    2  A    between atoms: N2_2  and  C5_5 
REMARK    3  A    between atoms: C3_3  and  C5_5 
REMARK    4  A    between atoms: C3_3  and  C4_4 
ROOT
HETATM    1  C3          0      15.088 -46.190  30.874  1.00  0.00     0.059 C 
ENDROOT
BRANCH   1   2
HETATM    2  C5          0      15.525 -44.915  31.598  1.00  0.00     0.268 C 
BRANCH   2   3
HETATM    3  N2          0      14.662 -43.784  31.279  1.00  0.00     0.078 N 
HETATM    4  H15         0      14.344 -43.345  32.143  1.00  0.00     0.312 HD
HETATM    5  H14         0      15.202 -43.072  30.789  1.00  0.00     0.312 HD
ENDBRANCH   2   3
ENDBRANCH   1   2
BRANCH   1   6
HETATM    6  C4          0      15.923 -46.485  29.627  1.00  0.00     0.268 C 
BRANCH   6   7
HETATM    7  N1          0      15.333 -45.838  28.461  1.00  0.00     0.078 N 
HETATM    8  H12         0      15.220 -46.518  27.711  1.00  0.00     0.312 HD
HETATM    9  H13         0      15.973 -45.127  28.109  1.00  0.00     0.312 HD
ENDBRANCH   6   7
ENDBRANCH   1   6
TORSDOF 4
ENDMDL
MODEL 8
REMARK VINA RESULT:      -3.2      7.579      8.062
REMARK  4 active torsions:
REMARK  status: ('A' for Active; 'I' for Inactive)
REMARK    1  A    between atoms: N1_1  and  C4_4 
REMARK    2  A    between atoms: N2_2  and  C5_5 
REMARK    3  A    between atoms: C3_3  and  C5_5 
REMARK    4  A    between atoms: C3_3  and  C4_4 
ROOT
HETATM    1  C3          0       0.174 -39.848  32.136  1.00  0.00     0.059 C 
ENDROOT
BRANCH   1   2
HETATM    2  C5          0      -1.043 -40.637  31.652  1.00  0.00     0.268 C 
BRANCH   2   3
HETATM    3  N2          0      -0.893 -42.069  31.885  1.00  0.00     0.078 N 
HETATM    4  H15         0      -0.635 -42.230  32.857  1.00  0.00     0.312 HD
HETATM    5  H14         0      -1.793 -42.530  31.757  1.00  0.00     0.312 HD
ENDBRANCH   2   3
ENDBRANCH   1   2
BRANCH   1   6
HETATM    6  C4          0       0.220 -38.422  31.582  1.00  0.00     0.268 C 
BRANCH   6   7
HETATM    7  N1          0       0.670 -37.495  32.614  1.00  0.00     0.078 N 
HETATM    8  H12         0       1.387 -36.879  32.233  1.00  0.00     0.312 HD
HETATM    9  H13         0       1.114 -38.018  33.368  1.00  0.00     0.312 HD
ENDBRANCH   6   7
ENDBRANCH   1   6
TORSDOF 4
ENDMDL
MODEL 9
REMARK VINA RESULT:      -3.1      3.022      3.999
REMARK  4 active torsions:
REMARK  status: ('A' for Active; 'I' for Inactive)
REMARK    1  A    between atoms: N1_1  and  C4_4 
REMARK    2  A    between atoms: N2_2  and  C5_5 
REMARK    3  A    between atoms: C3_3  and  C5_5 
REMARK    4  A    between atoms: C3_3  and  C4_4 
ROOT
HETATM    1  C3          0       6.759 -39.592  23.235  1.00  0.00     0.059 C 
ENDROOT
BRANCH   1   2
HETATM    2  C5          0       6.541 -38.358  22.359  1.00  0.00     0.268 C 
BRANCH   2   3
HETATM    3  N2          0       5.133 -37.988  22.277  1.00  0.00     0.078 N 
HETATM    4  H15         0       5.033 -36.989  22.454  1.00  0.00     0.312 HD
HETATM    5  H14         0       4.797 -38.135  21.325  1.00  0.00     0.312 HD
ENDBRANCH   2   3
ENDBRANCH   1   2
BRANCH   1   6
HETATM    6  C4          0       6.859 -39.258  24.725  1.00  0.00     0.268 C 
BRANCH   6   7
HETATM    7  N1          0       6.417 -40.392  25.527  1.00  0.00     0.078 N 
HETATM    8  H12         0       6.479 -41.247  24.976  1.00  0.00     0.312 HD
HETATM    9  H13         0       5.433 -40.276  25.764  1.00  0.00     0.312 HD
ENDBRANCH   6   7
ENDBRANCH   1   6
TORSDOF 4
ENDMDL
