MODEL 1
REMARK VINA RESULT:      -4.6      0.000      0.000
REMARK  8 active torsions:
REMARK  status: ('A' for Active; 'I' for Inactive)
REMARK    1  A    between atoms: O1_1  and  C10_10 
REMARK    2  A    between atoms: N3_3  and  C8_8 
REMARK    3  A    between atoms: N4_4  and  C9_9 
REMARK    4  A    between atoms: C5_5  and  C6_6 
REMARK    5  A    between atoms: C5_5  and  C7_7 
REMARK    6  A    between atoms: C6_6  and  C8_8 
REMARK    7  A    between atoms: C7_7  and  C9_9 
REMARK    8  A    between atoms: C8_8  and  C10_10 
ROOT
HETATM    1  C8          0      15.060 -46.184  30.727  1.00  0.00     0.314 C 
ENDROOT
BRANCH   1   2
HETATM    2  N3          0      15.082 -44.783  31.149  1.00  0.00     0.093 N 
HETATM    3  H21         0      14.363 -44.264  30.646  1.00  0.00     0.314 HD
HETATM    4  H20         0      14.847 -44.706  32.137  1.00  0.00     0.314 HD
ENDBRANCH   1   2
BRANCH   1   5
HETATM    5  C10         0      15.452 -46.229  29.265  1.00  0.00     0.173 C 
HETATM    6  O2          0      16.379 -46.910  28.840  1.00  0.00    -0.648 OA
BRANCH   5   7
HETATM    7  O1          0      14.699 -45.436  28.462  1.00  0.00    -0.775 OA
HETATM    8  H24         0      15.067 -44.530  28.393  1.00  0.00     0.167 HD
ENDBRANCH   5   7
ENDBRANCH   1   5
BRANCH   1   9
HETATM    9  C6          0      15.960 -47.052  31.616  1.00  0.00     0.046 C 
BRANCH   9  10
HETATM   10  C5          0      16.942 -46.267  32.496  1.00  0.00     0.004 C 
BRANCH  10  11
HETATM   11  C7          0      16.970 -46.737  33.952  1.00  0.00     0.030 C 
BRANCH  11  12
HETATM   12  C9          0      15.581 -47.179  34.414  1.00  0.00     0.267 C 
BRANCH  12  13
HETATM   13  N4          0      15.612 -48.570  34.850  1.00  0.00     0.078 N 
HETATM   14  H22         0      16.474 -49.011  34.533  1.00  0.00     0.312 HD
HETATM   15  H23         0      14.850 -49.081  34.405  1.00  0.00     0.312 HD
ENDBRANCH  12  13
ENDBRANCH  11  12
ENDBRANCH  10  11
ENDBRANCH   9  10
ENDBRANCH   1   9
TORSDOF 8
ENDMDL
MODEL 2
REMARK VINA RESULT:      -4.6     17.037     18.171
REMARK  8 active torsions:
REMARK  status: ('A' for Active; 'I' for Inactive)
REMARK    1  A    between atoms: O1_1  and  C10_10 
REMARK    2  A    between atoms: N3_3  and  C8_8 
REMARK    3  A    between atoms: N4_4  and  C9_9 
REMARK    4  A    between atoms: C5_5  and  C6_6 
REMARK    5  A    between atoms: C5_5  and  C7_7 
REMARK    6  A    between atoms: C6_6  and  C8_8 
REMARK    7  A    between atoms: C7_7  and  C9_9 
REMARK    8  A    between atoms: C8_8  and  C10_10 
ROOT
HETATM    1  C8          0       0.863 -38.257  31.628  1.00  0.00     0.314 C 
ENDROOT
BRANCH   1   2
HETATM    2  N3          0       0.437 -37.132  32.462  1.00  0.00     0.093 N 
HETATM    3  H21         0       0.959 -36.297  32.200  1.00  0.00     0.314 HD
HETATM    4  H20         0      -0.544 -36.916  32.292  1.00  0.00     0.314 HD
ENDBRANCH   1   2
BRANCH   1   5
HETATM    5  C10         0       1.168 -39.421  32.549  1.00  0.00     0.173 C 
HETATM    6  O2          0       2.008 -39.369  33.439  1.00  0.00    -0.648 OA
BRANCH   5   7
HETATM    7  O1          0       0.441 -40.537  32.293  1.00  0.00    -0.775 OA
HETATM    8  H24         0      -0.407 -40.543  32.786  1.00  0.00     0.167 HD
ENDBRANCH   5   7
ENDBRANCH   1   5
BRANCH   1   9
HETATM    9  C6          0      -0.187 -38.595  30.563  1.00  0.00     0.046 C 
BRANCH   9  10
HETATM   10  C5          0      -1.579 -38.003  30.822  1.00  0.00     0.004 C 
BRANCH  10  11
HETATM   11  C7          0      -2.585 -39.018  31.369  1.00  0.00     0.030 C 
BRANCH  11  12
HETATM   12  C9          0      -2.678 -40.244  30.461  1.00  0.00     0.267 C 
BRANCH  12  13
HETATM   13  N4          0      -2.170 -41.424  31.150  1.00  0.00     0.078 N 
HETATM   14  H22         0      -2.840 -42.187  31.066  1.00  0.00     0.312 HD
HETATM   15  H23         0      -2.088 -41.225  32.147  1.00  0.00     0.312 HD
ENDBRANCH  12  13
ENDBRANCH  11  12
ENDBRANCH  10  11
ENDBRANCH   9  10
ENDBRANCH   1   9
TORSDOF 8
ENDMDL
MODEL 3
REMARK VINA RESULT:      -4.5      3.274      4.947
REMARK  8 active torsions:
REMARK  status: ('A' for Active; 'I' for Inactive)
REMARK    1  A    between atoms: O1_1  and  C10_10 
REMARK    2  A    between atoms: N3_3  and  C8_8 
REMARK    3  A    between atoms: N4_4  and  C9_9 
REMARK    4  A    between atoms: C5_5  and  C6_6 
REMARK    5  A    between atoms: C5_5  and  C7_7 
REMARK    6  A    between atoms: C6_6  and  C8_8 
REMARK    7  A    between atoms: C7_7  and  C9_9 
REMARK    8  A    between atoms: C8_8  and  C10_10 
ROOT
HETATM    1  C8          0      16.439 -46.824  33.260  1.00  0.00     0.314 C 
ENDROOT
BRANCH   1   2
HETATM    2  N3          0      17.742 -46.431  33.799  1.00  0.00     0.093 N 
HETATM    3  H21         0      17.608 -45.800  34.588  1.00  0.00     0.314 HD
HETATM    4  H20         0      18.233 -47.244  34.168  1.00  0.00     0.314 HD
ENDBRANCH   1   2
BRANCH   1   5
HETATM    5  C10         0      15.575 -47.265  34.424  1.00  0.00     0.173 C 
HETATM    6  O2          0      14.950 -46.482  35.129  1.00  0.00    -0.648 OA
BRANCH   5   7
HETATM    7  O1          0      15.565 -48.606  34.633  1.00  0.00    -0.775 OA
HETATM    8  H24         0      14.949 -49.066  34.026  1.00  0.00     0.167 HD
ENDBRANCH   5   7
ENDBRANCH   1   5
BRANCH   1   9
HETATM    9  C6          0      15.807 -45.693  32.440  1.00  0.00     0.046 C 
BRANCH   9  10
HETATM   10  C5          0      15.324 -46.105  31.043  1.00  0.00     0.004 C 
BRANCH  10  11
HETATM   11  C7          0      16.213 -47.153  30.370  1.00  0.00     0.030 C 
BRANCH  11  12
HETATM   12  C9          0      16.528 -46.761  28.926  1.00  0.00     0.267 C 
BRANCH  12  13
HETATM   13  N4          0      15.475 -45.906  28.393  1.00  0.00     0.078 N 
HETATM   14  H22         0      15.872 -45.017  28.092  1.00  0.00     0.312 HD
HETATM   15  H23         0      14.810 -45.685  29.134  1.00  0.00     0.312 HD
ENDBRANCH  12  13
ENDBRANCH  11  12
ENDBRANCH  10  11
ENDBRANCH   9  10
ENDBRANCH   1   9
TORSDOF 8
ENDMDL
MODEL 4
REMARK VINA RESULT:      -4.5     18.166     19.333
REMARK  8 active torsions:
REMARK  status: ('A' for Active; 'I' for Inactive)
REMARK    1  A    between atoms: O1_1  and  C10_10 
REMARK    2  A    between atoms: N3_3  and  C8_8 
REMARK    3  A    between atoms: N4_4  and  C9_9 
REMARK    4  A    between atoms: C5_5  and  C6_6 
REMARK    5  A    between atoms: C5_5  and  C7_7 
REMARK    6  A    between atoms: C6_6  and  C8_8 
REMARK    7  A    between atoms: C7_7  and  C9_9 
REMARK    8  A    between atoms: C8_8  and  C10_10 
ROOT
HETATM    1  C8          0      -0.770 -38.555  31.600  1.00  0.00     0.314 C 
ENDROOT
BRANCH   1   2
HETATM    2  N3          0      -1.025 -39.752  32.402  1.00  0.00     0.093 N 
HETATM    3  H21         0      -1.625 -40.391  31.882  1.00  0.00     0.314 HD
HETATM    4  H20         0      -0.156 -40.257  32.572  1.00  0.00     0.314 HD
ENDBRANCH   1   2
BRANCH   1   5
HETATM    5  C10         0       0.553 -37.972  32.052  1.00  0.00     0.173 C 
HETATM    6  O2          0       1.613 -38.583  31.984  1.00  0.00    -0.648 OA
BRANCH   5   7
HETATM    7  O1          0       0.463 -36.716  32.557  1.00  0.00    -0.775 OA
HETATM    8  H24         0      -0.467 -36.415  32.627  1.00  0.00     0.167 HD
ENDBRANCH   5   7
ENDBRANCH   1   5
BRANCH   1   9
HETATM    9  C6          0      -0.805 -38.868  30.099  1.00  0.00     0.046 C 
BRANCH   9  10
HETATM   10  C5          0      -2.089 -38.431  29.380  1.00  0.00     0.004 C 
BRANCH  10  11
HETATM   11  C7          0      -3.204 -37.992  30.332  1.00  0.00     0.030 C 
BRANCH  11  12
HETATM   12  C9          0      -4.226 -39.111  30.534  1.00  0.00     0.267 C 
BRANCH  12  13
HETATM   13  N4          0      -4.493 -39.302  31.955  1.00  0.00     0.078 N 
HETATM   14  H22         0      -4.505 -40.297  32.172  1.00  0.00     0.312 HD
HETATM   15  H23         0      -5.425 -38.950  32.174  1.00  0.00     0.312 HD
ENDBRANCH  12  13
ENDBRANCH  11  12
ENDBRANCH  10  11
ENDBRANCH   9  10
ENDBRANCH   1   9
TORSDOF 8
ENDMDL
MODEL 5
REMARK VINA RESULT:      -4.5     17.524     18.746
REMARK  8 active torsions:
REMARK  status: ('A' for Active; 'I' for Inactive)
REMARK    1  A    between atoms: O1_1  and  C10_10 
REMARK    2  A    between atoms: N3_3  and  C8_8 
REMARK    3  A    between atoms: N4_4  and  C9_9 
REMARK    4  A    between atoms: C5_5  and  C6_6 
REMARK    5  A    between atoms: C5_5  and  C7_7 
REMARK    6  A    between atoms: C6_6  and  C8_8 
REMARK    7  A    between atoms: C7_7  and  C9_9 
REMARK    8  A    between atoms: C8_8  and  C10_10 
ROOT
HETATM    1  C8          0       0.553 -39.550  31.552  1.00  0.00     0.314 C 
ENDROOT
BRANCH   1   2
HETATM    2  N3          0       0.530 -39.061  30.173  1.00  0.00     0.093 N 
HETATM    3  H21         0       0.169 -39.790  29.558  1.00  0.00     0.314 HD
HETATM    4  H20         0      -0.113 -38.275  30.085  1.00  0.00     0.314 HD
ENDBRANCH   1   2
BRANCH   1   5
HETATM    5  C10         0       0.614 -38.343  32.465  1.00  0.00     0.173 C 
HETATM    6  O2          0       1.187 -38.350  33.548  1.00  0.00    -0.648 OA
BRANCH   5   7
HETATM    7  O1          0      -0.037 -37.252  31.989  1.00  0.00    -0.775 OA
HETATM    8  H24         0      -0.738 -36.947  32.602  1.00  0.00     0.167 HD
ENDBRANCH   5   7
ENDBRANCH   1   5
BRANCH   1   9
HETATM    9  C6          0      -0.644 -40.462  31.844  1.00  0.00     0.046 C 
BRANCH   9  10
HETATM   10  C5          0      -1.864 -40.230  30.942  1.00  0.00     0.004 C 
BRANCH  10  11
HETATM   11  C7          0      -2.908 -39.292  31.552  1.00  0.00     0.030 C 
BRANCH  11  12
HETATM   12  C9          0      -3.428 -38.299  30.512  1.00  0.00     0.267 C 
BRANCH  12  13
HETATM   13  N4          0      -2.440 -37.254  30.271  1.00  0.00     0.078 N 
HETATM   14  H22         0      -2.366 -37.074  29.271  1.00  0.00     0.312 HD
HETATM   15  H23         0      -1.522 -37.582  30.571  1.00  0.00     0.312 HD
ENDBRANCH  12  13
ENDBRANCH  11  12
ENDBRANCH  10  11
ENDBRANCH   9  10
ENDBRANCH   1   9
TORSDOF 8
ENDMDL
MODEL 6
REMARK VINA RESULT:      -4.4     19.013     19.944
REMARK  8 active torsions:
REMARK  status: ('A' for Active; 'I' for Inactive)
REMARK    1  A    between atoms: O1_1  and  C10_10 
REMARK    2  A    between atoms: N3_3  and  C8_8 
REMARK    3  A    between atoms: N4_4  and  C9_9 
REMARK    4  A    between atoms: C5_5  and  C6_6 
REMARK    5  A    between atoms: C5_5  and  C7_7 
REMARK    6  A    between atoms: C6_6  and  C8_8 
REMARK    7  A    between atoms: C7_7  and  C9_9 
REMARK    8  A    between atoms: C8_8  and  C10_10 
ROOT
HETATM    1  C8          0       2.762 -37.094  41.213  1.00  0.00     0.314 C 
ENDROOT
BRANCH   1   2
HETATM    2  N3          0       3.835 -38.086  41.299  1.00  0.00     0.093 N 
HETATM    3  H21         0       4.388 -37.918  42.138  1.00  0.00     0.314 HD
HETATM    4  H20         0       3.445 -39.022  41.402  1.00  0.00     0.314 HD
ENDBRANCH   1   2
BRANCH   1   5
HETATM    5  C10         0       3.372 -35.802  40.709  1.00  0.00     0.173 C 
HETATM    6  O2          0       4.512 -35.726  40.267  1.00  0.00    -0.648 OA
BRANCH   5   7
HETATM    7  O1          0       2.551 -34.726  40.805  1.00  0.00    -0.775 OA
HETATM    8  H24         0       1.862 -34.727  40.108  1.00  0.00     0.167 HD
ENDBRANCH   5   7
ENDBRANCH   1   5
BRANCH   1   9
HETATM    9  C6          0       1.606 -37.592  40.337  1.00  0.00     0.046 C 
BRANCH   9  10
HETATM   10  C5          0       0.340 -37.989  41.108  1.00  0.00     0.004 C 
BRANCH  10  11
HETATM   11  C7          0      -0.638 -36.831  41.319  1.00  0.00     0.030 C 
BRANCH  11  12
HETATM   12  C9          0      -0.748 -35.969  40.061  1.00  0.00     0.267 C 
BRANCH  12  13
HETATM   13  N4          0      -0.497 -34.569  40.383  1.00  0.00     0.078 N 
HETATM   14  H22         0      -0.573 -34.003  39.540  1.00  0.00     0.312 HD
HETATM   15  H23         0       0.462 -34.464  40.713  1.00  0.00     0.312 HD
ENDBRANCH  12  13
ENDBRANCH  11  12
ENDBRANCH  10  11
ENDBRANCH   9  10
ENDBRANCH   1   9
TORSDOF 8
ENDMDL
MODEL 7
REMARK VINA RESULT:      -4.4      2.020      2.350
REMARK  8 active torsions:
REMARK  status: ('A' for Active; 'I' for Inactive)
REMARK    1  A    between atoms: O1_1  and  C10_10 
REMARK    2  A    between atoms: N3_3  and  C8_8 
REMARK    3  A    between atoms: N4_4  and  C9_9 
REMARK    4  A    between atoms: C5_5  and  C6_6 
REMARK    5  A    between atoms: C5_5  and  C7_7 
REMARK    6  A    between atoms: C6_6  and  C8_8 
REMARK    7  A    between atoms: C7_7  and  C9_9 
REMARK    8  A    between atoms: C8_8  and  C10_10 
ROOT
HETATM    1  C8          0      15.589 -46.526  29.373  1.00  0.00     0.314 C 
ENDROOT
BRANCH   1   2
HETATM    2  N3          0      15.039 -45.561  28.419  1.00  0.00     0.093 N 
HETATM    3  H21         0      14.051 -45.411  28.617  1.00  0.00     0.314 HD
HETATM    4  H20         0      15.490 -44.654  28.531  1.00  0.00     0.314 HD
ENDBRANCH   1   2
BRANCH   1   5
HETATM    5  C10         0      17.059 -46.700  29.053  1.00  0.00     0.173 C 
HETATM    6  O2          0      17.946 -46.059  29.606  1.00  0.00    -0.648 OA
BRANCH   5   7
HETATM    7  O1          0      17.313 -47.617  28.086  1.00  0.00    -0.775 OA
HETATM    8  H24         0      17.117 -47.269  27.191  1.00  0.00     0.167 HD
ENDBRANCH   5   7
ENDBRANCH   1   5
BRANCH   1   9
HETATM    9  C6          0      15.338 -46.087  30.821  1.00  0.00     0.046 C 
BRANCH   9  10
HETATM   10  C5          0      15.645 -47.155  31.878  1.00  0.00     0.004 C 
BRANCH  10  11
HETATM   11  C7          0      16.195 -46.582  33.186  1.00  0.00     0.030 C 
BRANCH  11  12
HETATM   12  C9          0      17.724 -46.572  33.181  1.00  0.00     0.267 C 
BRANCH  12  13
HETATM   13  N4          0      18.235 -47.640  32.329  1.00  0.00     0.078 N 
HETATM   14  H22         0      17.629 -48.456  32.400  1.00  0.00     0.312 HD
HETATM   15  H23         0      19.151 -47.933  32.668  1.00  0.00     0.312 HD
ENDBRANCH  12  13
ENDBRANCH  11  12
ENDBRANCH  10  11
ENDBRANCH   9  10
ENDBRANCH   1   9
TORSDOF 8
ENDMDL
MODEL 8
REMARK VINA RESULT:      -4.4      1.520      1.788
REMARK  8 active torsions:
REMARK  status: ('A' for Active; 'I' for Inactive)
REMARK    1  A    between atoms: O1_1  and  C10_10 
REMARK    2  A    between atoms: N3_3  and  C8_8 
REMARK    3  A    between atoms: N4_4  and  C9_9 
REMARK    4  A    between atoms: C5_5  and  C6_6 
REMARK    5  A    between atoms: C5_5  and  C7_7 
REMARK    6  A    between atoms: C6_6  and  C8_8 
REMARK    7  A    between atoms: C7_7  and  C9_9 
REMARK    8  A    between atoms: C8_8  and  C10_10 
ROOT
HETATM    1  C8          0      16.618 -46.716  30.503  1.00  0.00     0.314 C 
ENDROOT
BRANCH   1   2
HETATM    2  N3          0      17.219 -47.892  29.873  1.00  0.00     0.093 N 
HETATM    3  H21         0      17.740 -48.423  30.570  1.00  0.00     0.314 HD
HETATM    4  H20         0      16.494 -48.518  29.526  1.00  0.00     0.314 HD
ENDBRANCH   1   2
BRANCH   1   5
HETATM    5  C10         0      15.744 -46.038  29.468  1.00  0.00     0.173 C 
HETATM    6  O2          0      14.747 -45.386  29.755  1.00  0.00    -0.648 OA
BRANCH   5   7
HETATM    7  O1          0      16.149 -46.229  28.187  1.00  0.00    -0.775 OA
HETATM    8  H24         0      15.422 -46.082  27.547  1.00  0.00     0.167 HD
ENDBRANCH   5   7
ENDBRANCH   1   5
BRANCH   1   9
HETATM    9  C6          0      15.854 -47.091  31.779  1.00  0.00     0.046 C 
BRANCH   9  10
HETATM   10  C5          0      16.395 -46.451  33.064  1.00  0.00     0.004 C 
BRANCH  10  11
HETATM   11  C7          0      15.534 -46.731  34.298  1.00  0.00     0.030 C 
BRANCH  11  12
HETATM   12  C9          0      16.230 -47.712  35.242  1.00  0.00     0.267 C 
BRANCH  12  13
HETATM   13  N4          0      15.679 -49.052  35.075  1.00  0.00     0.078 N 
HETATM   14  H22         0      14.708 -48.989  34.772  1.00  0.00     0.312 HD
HETATM   15  H23         0      15.667 -49.527  35.977  1.00  0.00     0.312 HD
ENDBRANCH  12  13
ENDBRANCH  11  12
ENDBRANCH  10  11
ENDBRANCH   9  10
ENDBRANCH   1   9
TORSDOF 8
ENDMDL
MODEL 9
REMARK VINA RESULT:      -4.4     18.780     19.962
REMARK  8 active torsions:
REMARK  status: ('A' for Active; 'I' for Inactive)
REMARK    1  A    between atoms: O1_1  and  C10_10 
REMARK    2  A    between atoms: N3_3  and  C8_8 
REMARK    3  A    between atoms: N4_4  and  C9_9 
REMARK    4  A    between atoms: C5_5  and  C6_6 
REMARK    5  A    between atoms: C5_5  and  C7_7 
REMARK    6  A    between atoms: C6_6  and  C8_8 
REMARK    7  A    between atoms: C7_7  and  C9_9 
REMARK    8  A    between atoms: C8_8  and  C10_10 
ROOT
HETATM    1  C8          0      -0.540 -38.770  31.217  1.00  0.00     0.314 C 
ENDROOT
BRANCH   1   2
HETATM    2  N3          0       0.359 -38.423  32.319  1.00  0.00     0.093 N 
HETATM    3  H21         0       1.300 -38.273  31.957  1.00  0.00     0.314 HD
HETATM    4  H20         0       0.077 -37.541  32.743  1.00  0.00     0.314 HD
ENDBRANCH   1   2
BRANCH   1   5
HETATM    5  C10         0      -1.303 -40.014  31.623  1.00  0.00     0.173 C 
HETATM    6  O2          0      -1.026 -41.135  31.211  1.00  0.00    -0.648 OA
BRANCH   5   7
HETATM    7  O1          0      -2.335 -39.781  32.471  1.00  0.00    -0.775 OA
HETATM    8  H24         0      -2.061 -39.239  33.241  1.00  0.00     0.167 HD
ENDBRANCH   5   7
ENDBRANCH   1   5
BRANCH   1   9
HETATM    9  C6          0      -1.458 -37.597  30.852  1.00  0.00     0.046 C 
BRANCH   9  10
HETATM   10  C5          0      -2.434 -37.879  29.701  1.00  0.00     0.004 C 
BRANCH  10  11
HETATM   11  C7          0      -3.865 -37.417  29.985  1.00  0.00     0.030 C 
BRANCH  11  12
HETATM   12  C9          0      -4.777 -38.607  30.282  1.00  0.00     0.267 C 
BRANCH  12  13
HETATM   13  N4          0      -5.042 -38.697  31.714  1.00  0.00     0.078 N 
HETATM   14  H22         0      -5.938 -38.260  31.926  1.00  0.00     0.312 HD
HETATM   15  H23         0      -4.337 -38.164  32.222  1.00  0.00     0.312 HD
ENDBRANCH  12  13
ENDBRANCH  11  12
ENDBRANCH  10  11
ENDBRANCH   9  10
ENDBRANCH   1   9
TORSDOF 8
ENDMDL
