MODEL 1
REMARK VINA RESULT:      -5.4      0.000      0.000
REMARK  7 active torsions:
REMARK  status: ('A' for Active; 'I' for Inactive)
REMARK    1  A    between atoms: C2_2  and  C3_3 
REMARK    2  A    between atoms: C3_3  and  N11_11 
REMARK    3  A    between atoms: C3_3  and  C4_4 
REMARK    4  A    between atoms: C4_4  and  C5_5 
REMARK    5  A    between atoms: C5_5  and  C6_6 
REMARK    6  A    between atoms: C6_6  and  C7_7 
REMARK    7  A    between atoms: C7_7  and  N8_8 
ROOT
HETATM    1  C3          0       5.666 -38.772  26.227  1.00  0.00     0.283 C 
ENDROOT
BRANCH   1   2
HETATM    2  C2          0       4.564 -37.745  26.271  1.00  0.00     0.204 C 
HETATM    3  O1          0       4.132 -37.270  25.234  1.00  0.00    -0.646 OA
HETATM    4  O15         0       4.108 -37.386  27.342  1.00  0.00    -0.646 OA
ENDBRANCH   1   2
BRANCH   1   5
HETATM    5  N11         0       5.950 -39.244  27.589  1.00  0.00    -0.065 N 
HETATM    6  H12         0       5.985 -40.254  27.594  1.00  0.00     0.275 HD
HETATM    7  H13         0       6.837 -38.876  27.894  1.00  0.00     0.275 HD
HETATM    8  H14         0       5.222 -38.930  28.212  1.00  0.00     0.275 HD
ENDBRANCH   1   5
BRANCH   1   9
HETATM    9  C4          0       6.927 -38.142  25.633  1.00  0.00     0.044 C 
BRANCH   9  10
HETATM   10  C5          0       7.573 -39.120  24.650  1.00  0.00     0.004 C 
BRANCH  10  11
HETATM   11  C6          0       6.534 -39.569  23.620  1.00  0.00     0.030 C 
BRANCH  11  12
HETATM   12  C7          0       6.472 -38.548  22.481  1.00  0.00     0.267 C 
BRANCH  12  13
HETATM   13  N8          0       5.126 -37.961  22.423  1.00  0.00     0.078 N 
HETATM   14  H9          0       4.776 -37.767  23.348  1.00  0.00     0.312 HD
HETATM   15  H10         0       5.119 -37.129  21.852  1.00  0.00     0.312 HD
ENDBRANCH  12  13
ENDBRANCH  11  12
ENDBRANCH  10  11
ENDBRANCH   9  10
ENDBRANCH   1   9
TORSDOF 7
ENDMDL
MODEL 2
REMARK VINA RESULT:      -4.8      1.979      2.159
REMARK  7 active torsions:
REMARK  status: ('A' for Active; 'I' for Inactive)
REMARK    1  A    between atoms: C2_2  and  C3_3 
REMARK    2  A    between atoms: C3_3  and  N11_11 
REMARK    3  A    between atoms: C3_3  and  C4_4 
REMARK    4  A    between atoms: C4_4  and  C5_5 
REMARK    5  A    between atoms: C5_5  and  C6_6 
REMARK    6  A    between atoms: C6_6  and  C7_7 
REMARK    7  A    between atoms: C7_7  and  N8_8 
ROOT
HETATM    1  C3          0       4.938 -37.568  25.747  1.00  0.00     0.283 C 
ENDROOT
BRANCH   1   2
HETATM    2  C2          0       4.721 -38.395  26.989  1.00  0.00     0.204 C 
HETATM    3  O1          0       3.839 -38.095  27.775  1.00  0.00    -0.646 OA
HETATM    4  O15         0       5.430 -39.361  27.208  1.00  0.00    -0.646 OA
ENDBRANCH   1   2
BRANCH   1   5
HETATM    5  N11         0       3.641 -37.103  25.236  1.00  0.00    -0.065 N 
HETATM    6  H12         0       2.902 -37.665  25.634  1.00  0.00     0.275 HD
HETATM    7  H13         0       3.504 -36.138  25.494  1.00  0.00     0.275 HD
HETATM    8  H14         0       3.625 -37.189  24.231  1.00  0.00     0.275 HD
ENDBRANCH   1   5
BRANCH   1   9
HETATM    9  C4          0       5.630 -38.419  24.681  1.00  0.00     0.044 C 
BRANCH   9  10
HETATM   10  C5          0       7.091 -37.985  24.550  1.00  0.00     0.004 C 
BRANCH  10  11
HETATM   11  C6          0       7.748 -38.746  23.396  1.00  0.00     0.030 C 
BRANCH  11  12
HETATM   12  C7          0       7.243 -38.187  22.064  1.00  0.00     0.267 C 
BRANCH  12  13
HETATM   13  N8          0       7.612 -36.770  21.956  1.00  0.00     0.078 N 
HETATM   14  H9          0       8.494 -36.590  22.410  1.00  0.00     0.312 HD
HETATM   15  H10         0       7.635 -36.474  20.992  1.00  0.00     0.312 HD
ENDBRANCH  12  13
ENDBRANCH  11  12
ENDBRANCH  10  11
ENDBRANCH   9  10
ENDBRANCH   1   9
TORSDOF 7
ENDMDL
MODEL 3
REMARK VINA RESULT:      -4.4      8.883      9.524
REMARK  7 active torsions:
REMARK  status: ('A' for Active; 'I' for Inactive)
REMARK    1  A    between atoms: C2_2  and  C3_3 
REMARK    2  A    between atoms: C3_3  and  N11_11 
REMARK    3  A    between atoms: C3_3  and  C4_4 
REMARK    4  A    between atoms: C4_4  and  C5_5 
REMARK    5  A    between atoms: C5_5  and  C6_6 
REMARK    6  A    between atoms: C6_6  and  C7_7 
REMARK    7  A    between atoms: C7_7  and  N8_8 
ROOT
HETATM    1  C3          0       0.489 -38.149  31.716  1.00  0.00     0.283 C 
ENDROOT
BRANCH   1   2
HETATM    2  C2          0       0.924 -39.415  32.409  1.00  0.00     0.204 C 
HETATM    3  O1          0       1.907 -39.406  33.131  1.00  0.00    -0.646 OA
HETATM    4  O15         0       0.296 -40.446  32.246  1.00  0.00    -0.646 OA
ENDBRANCH   1   2
BRANCH   1   5
HETATM    5  N11         0       0.665 -37.008  32.624  1.00  0.00    -0.065 N 
HETATM    6  H12         0       0.244 -37.220  33.517  1.00  0.00     0.275 HD
HETATM    7  H13         0       1.649 -36.828  32.751  1.00  0.00     0.275 HD
HETATM    8  H14         0       0.223 -36.192  32.228  1.00  0.00     0.275 HD
ENDBRANCH   1   5
BRANCH   1   9
HETATM    9  C4          0      -0.985 -38.264  31.323  1.00  0.00     0.044 C 
BRANCH   9  10
HETATM   10  C5          0      -1.092 -38.656  29.848  1.00  0.00     0.004 C 
BRANCH  10  11
HETATM   11  C6          0      -2.461 -39.289  29.586  1.00  0.00     0.030 C 
BRANCH  11  12
HETATM   12  C7          0      -2.985 -39.924  30.876  1.00  0.00     0.267 C 
BRANCH  12  13
HETATM   13  N8          0      -2.478 -41.298  30.986  1.00  0.00     0.078 N 
HETATM   14  H9          0      -1.539 -41.368  30.627  1.00  0.00     0.312 HD
HETATM   15  H10         0      -2.526 -41.626  31.939  1.00  0.00     0.312 HD
ENDBRANCH  12  13
ENDBRANCH  11  12
ENDBRANCH  10  11
ENDBRANCH   9  10
ENDBRANCH   1   9
TORSDOF 7
ENDMDL
MODEL 4
REMARK VINA RESULT:      -4.4     13.830     15.089
REMARK  7 active torsions:
REMARK  status: ('A' for Active; 'I' for Inactive)
REMARK    1  A    between atoms: C2_2  and  C3_3 
REMARK    2  A    between atoms: C3_3  and  N11_11 
REMARK    3  A    between atoms: C3_3  and  C4_4 
REMARK    4  A    between atoms: C4_4  and  C5_5 
REMARK    5  A    between atoms: C5_5  and  C6_6 
REMARK    6  A    between atoms: C6_6  and  C7_7 
REMARK    7  A    between atoms: C7_7  and  N8_8 
ROOT
HETATM    1  C3          0      15.356 -45.528  31.278  1.00  0.00     0.283 C 
ENDROOT
BRANCH   1   2
HETATM    2  C2          0      15.517 -45.937  29.837  1.00  0.00     0.204 C 
HETATM    3  O1          0      14.548 -45.948  29.095  1.00  0.00    -0.646 OA
HETATM    4  O15         0      16.612 -46.261  29.414  1.00  0.00    -0.646 OA
ENDBRANCH   1   2
BRANCH   1   5
HETATM    5  N11         0      14.865 -44.145  31.343  1.00  0.00    -0.065 N 
HETATM    6  H12         0      13.982 -44.124  31.833  1.00  0.00     0.275 HD
HETATM    7  H13         0      15.535 -43.573  31.835  1.00  0.00     0.275 HD
HETATM    8  H14         0      14.740 -43.788  30.408  1.00  0.00     0.275 HD
ENDBRANCH   1   5
BRANCH   1   9
HETATM    9  C4          0      16.708 -45.622  31.989  1.00  0.00     0.044 C 
BRANCH   9  10
HETATM   10  C5          0      16.684 -46.786  32.980  1.00  0.00     0.004 C 
BRANCH  10  11
HETATM   11  C6          0      15.675 -46.489  34.092  1.00  0.00     0.030 C 
BRANCH  11  12
HETATM   12  C7          0      15.879 -47.477  35.243  1.00  0.00     0.267 C 
BRANCH  12  13
HETATM   13  N8          0      15.619 -48.843  34.767  1.00  0.00     0.078 N 
HETATM   14  H9          0      14.879 -48.853  34.082  1.00  0.00     0.312 HD
HETATM   15  H10         0      16.459 -49.263  34.398  1.00  0.00     0.312 HD
ENDBRANCH  12  13
ENDBRANCH  11  12
ENDBRANCH  10  11
ENDBRANCH   9  10
ENDBRANCH   1   9
TORSDOF 7
ENDMDL
MODEL 5
REMARK VINA RESULT:      -4.3      8.875      9.602
REMARK  7 active torsions:
REMARK  status: ('A' for Active; 'I' for Inactive)
REMARK    1  A    between atoms: C2_2  and  C3_3 
REMARK    2  A    between atoms: C3_3  and  N11_11 
REMARK    3  A    between atoms: C3_3  and  C4_4 
REMARK    4  A    between atoms: C4_4  and  C5_5 
REMARK    5  A    between atoms: C5_5  and  C6_6 
REMARK    6  A    between atoms: C6_6  and  C7_7 
REMARK    7  A    between atoms: C7_7  and  N8_8 
ROOT
HETATM    1  C3          0      -0.832 -38.441  31.548  1.00  0.00     0.283 C 
ENDROOT
BRANCH   1   2
HETATM    2  C2          0       0.502 -37.878  31.965  1.00  0.00     0.204 C 
HETATM    3  O1          0       0.640 -36.673  32.095  1.00  0.00    -0.646 OA
HETATM    4  O15         0       1.442 -38.625  32.168  1.00  0.00    -0.646 OA
ENDBRANCH   1   2
BRANCH   1   5
HETATM    5  N11         0      -1.157 -39.603  32.386  1.00  0.00    -0.065 N 
HETATM    6  H12         0      -0.303 -40.053  32.682  1.00  0.00     0.275 HD
HETATM    7  H13         0      -1.674 -39.299  33.197  1.00  0.00     0.275 HD
HETATM    8  H14         0      -1.715 -40.255  31.856  1.00  0.00     0.275 HD
ENDBRANCH   1   5
BRANCH   1   9
HETATM    9  C4          0      -0.768 -38.874  30.081  1.00  0.00     0.044 C 
BRANCH   9  10
HETATM   10  C5          0      -1.928 -38.241  29.311  1.00  0.00     0.004 C 
BRANCH  10  11
HETATM   11  C6          0      -3.208 -39.039  29.571  1.00  0.00     0.030 C 
BRANCH  11  12
HETATM   12  C7          0      -4.287 -38.105  30.123  1.00  0.00     0.267 C 
BRANCH  12  13
HETATM   13  N8          0      -3.801 -36.719  30.085  1.00  0.00     0.078 N 
HETATM   14  H9          0      -4.569 -36.066  30.086  1.00  0.00     0.312 HD
HETATM   15  H10         0      -3.170 -36.536  30.850  1.00  0.00     0.312 HD
ENDBRANCH  12  13
ENDBRANCH  11  12
ENDBRANCH  10  11
ENDBRANCH   9  10
ENDBRANCH   1   9
TORSDOF 7
ENDMDL
MODEL 6
REMARK VINA RESULT:      -3.9     22.431     23.367
REMARK  7 active torsions:
REMARK  status: ('A' for Active; 'I' for Inactive)
REMARK    1  A    between atoms: C2_2  and  C3_3 
REMARK    2  A    between atoms: C3_3  and  N11_11 
REMARK    3  A    between atoms: C3_3  and  C4_4 
REMARK    4  A    between atoms: C4_4  and  C5_5 
REMARK    5  A    between atoms: C5_5  and  C6_6 
REMARK    6  A    between atoms: C6_6  and  C7_7 
REMARK    7  A    between atoms: C7_7  and  N8_8 
ROOT
HETATM    1  C3          0     -10.492 -54.626  34.528  1.00  0.00     0.283 C 
ENDROOT
BRANCH   1   2
HETATM    2  C2          0     -10.276 -53.709  35.705  1.00  0.00     0.204 C 
HETATM    3  O1          0     -10.090 -52.518  35.522  1.00  0.00    -0.646 OA
HETATM    4  O15         0     -10.285 -54.158  36.837  1.00  0.00    -0.646 OA
ENDBRANCH   1   2
BRANCH   1   5
HETATM    5  N11         0      -9.297 -55.459  34.332  1.00  0.00    -0.065 N 
HETATM    6  H12         0      -9.571 -56.429  34.264  1.00  0.00     0.275 HD
HETATM    7  H13         0      -8.831 -55.182  33.481  1.00  0.00     0.275 HD
HETATM    8  H14         0      -8.671 -55.339  35.113  1.00  0.00     0.275 HD
ENDBRANCH   1   5
BRANCH   1   9
HETATM    9  C4          0     -10.744 -53.793  33.271  1.00  0.00     0.044 C 
BRANCH   9  10
HETATM   10  C5          0      -9.509 -53.841  32.369  1.00  0.00     0.004 C 
BRANCH  10  11
HETATM   11  C6          0      -9.446 -52.569  31.521  1.00  0.00     0.030 C 
BRANCH  11  12
HETATM   12  C7          0      -9.101 -51.376  32.415  1.00  0.00     0.267 C 
BRANCH  12  13
HETATM   13  N8          0      -7.965 -51.724  33.278  1.00  0.00     0.078 N 
HETATM   14  H9          0      -7.348 -50.936  33.399  1.00  0.00     0.312 HD
HETATM   15  H10         0      -8.282 -52.074  34.170  1.00  0.00     0.312 HD
ENDBRANCH  12  13
ENDBRANCH  11  12
ENDBRANCH  10  11
ENDBRANCH   9  10
ENDBRANCH   1   9
TORSDOF 7
ENDMDL
MODEL 7
REMARK VINA RESULT:      -3.9     13.863     15.157
REMARK  7 active torsions:
REMARK  status: ('A' for Active; 'I' for Inactive)
REMARK    1  A    between atoms: C2_2  and  C3_3 
REMARK    2  A    between atoms: C3_3  and  N11_11 
REMARK    3  A    between atoms: C3_3  and  C4_4 
REMARK    4  A    between atoms: C4_4  and  C5_5 
REMARK    5  A    between atoms: C5_5  and  C6_6 
REMARK    6  A    between atoms: C6_6  and  C7_7 
REMARK    7  A    between atoms: C7_7  and  N8_8 
ROOT
HETATM    1  C3          0      -4.014 -45.262  31.204  1.00  0.00     0.283 C 
ENDROOT
BRANCH   1   2
HETATM    2  C2          0      -3.790 -46.598  30.542  1.00  0.00     0.204 C 
HETATM    3  O1          0      -3.561 -46.654  29.346  1.00  0.00    -0.646 OA
HETATM    4  O15         0      -3.842 -47.620  31.203  1.00  0.00    -0.646 OA
ENDBRANCH   1   2
BRANCH   1   5
HETATM    5  N11         0      -2.718 -44.675  31.572  1.00  0.00    -0.065 N 
HETATM    6  H12         0      -2.523 -44.873  32.543  1.00  0.00     0.275 HD
HETATM    7  H13         0      -1.992 -45.073  30.996  1.00  0.00     0.275 HD
HETATM    8  H14         0      -2.749 -43.676  31.432  1.00  0.00     0.275 HD
ENDBRANCH   1   5
BRANCH   1   9
HETATM    9  C4          0      -4.863 -45.451  32.462  1.00  0.00     0.044 C 
BRANCH   9  10
HETATM   10  C5          0      -6.258 -44.867  32.229  1.00  0.00     0.004 C 
BRANCH  10  11
HETATM   11  C6          0      -7.311 -45.952  32.464  1.00  0.00     0.030 C 
BRANCH  11  12
HETATM   12  C7          0      -7.399 -46.853  31.230  1.00  0.00     0.267 C 
BRANCH  12  13
HETATM   13  N8          0      -6.921 -48.199  31.572  1.00  0.00     0.078 N 
HETATM   14  H9          0      -5.920 -48.209  31.689  1.00  0.00     0.312 HD
HETATM   15  H10         0      -7.385 -48.548  32.397  1.00  0.00     0.312 HD
ENDBRANCH  12  13
ENDBRANCH  11  12
ENDBRANCH  10  11
ENDBRANCH   9  10
ENDBRANCH   1   9
TORSDOF 7
ENDMDL
MODEL 8
REMARK VINA RESULT:      -3.9     14.203     15.084
REMARK  7 active torsions:
REMARK  status: ('A' for Active; 'I' for Inactive)
REMARK    1  A    between atoms: C2_2  and  C3_3 
REMARK    2  A    between atoms: C3_3  and  N11_11 
REMARK    3  A    between atoms: C3_3  and  C4_4 
REMARK    4  A    between atoms: C4_4  and  C5_5 
REMARK    5  A    between atoms: C5_5  and  C6_6 
REMARK    6  A    between atoms: C6_6  and  C7_7 
REMARK    7  A    between atoms: C7_7  and  N8_8 
ROOT
HETATM    1  C3          0      -8.915 -38.102  30.452  1.00  0.00     0.283 C 
ENDROOT
BRANCH   1   2
HETATM    2  C2          0     -10.176 -37.419  29.989  1.00  0.00     0.204 C 
HETATM    3  O1          0     -10.637 -37.672  28.889  1.00  0.00    -0.646 OA
HETATM    4  O15         0     -10.733 -36.613  30.713  1.00  0.00    -0.646 OA
ENDBRANCH   1   2
BRANCH   1   5
HETATM    5  N11         0      -9.044 -38.459  31.871  1.00  0.00    -0.065 N 
HETATM    6  H12         0      -9.501 -39.356  31.953  1.00  0.00     0.275 HD
HETATM    7  H13         0      -8.128 -38.511  32.290  1.00  0.00     0.275 HD
HETATM    8  H14         0      -9.591 -37.757  32.346  1.00  0.00     0.275 HD
ENDBRANCH   1   5
BRANCH   1   9
HETATM    9  C4          0      -7.727 -37.156  30.271  1.00  0.00     0.044 C 
BRANCH   9  10
HETATM   10  C5          0      -7.152 -37.321  28.863  1.00  0.00     0.004 C 
BRANCH  10  11
HETATM   11  C6          0      -6.941 -38.808  28.569  1.00  0.00     0.030 C 
BRANCH  11  12
HETATM   12  C7          0      -7.609 -39.165  27.239  1.00  0.00     0.267 C 
BRANCH  12  13
HETATM   13  N8          0      -8.424 -38.032  26.782  1.00  0.00     0.078 N 
HETATM   14  H9          0      -7.843 -37.264  26.485  1.00  0.00     0.312 HD
HETATM   15  H10         0      -9.054 -38.314  26.045  1.00  0.00     0.312 HD
ENDBRANCH  12  13
ENDBRANCH  11  12
ENDBRANCH  10  11
ENDBRANCH   9  10
ENDBRANCH   1   9
TORSDOF 7
ENDMDL
MODEL 9
REMARK VINA RESULT:      -3.9     16.090     16.730
REMARK  7 active torsions:
REMARK  status: ('A' for Active; 'I' for Inactive)
REMARK    1  A    between atoms: C2_2  and  C3_3 
REMARK    2  A    between atoms: C3_3  and  N11_11 
REMARK    3  A    between atoms: C3_3  and  C4_4 
REMARK    4  A    between atoms: C4_4  and  C5_5 
REMARK    5  A    between atoms: C5_5  and  C6_6 
REMARK    6  A    between atoms: C6_6  and  C7_7 
REMARK    7  A    between atoms: C7_7  and  N8_8 
ROOT
HETATM    1  C3          0       3.109 -37.044  41.811  1.00  0.00     0.283 C 
ENDROOT
BRANCH   1   2
HETATM    2  C2          0       4.338 -36.258  41.431  1.00  0.00     0.204 C 
HETATM    3  O1          0       5.175 -35.989  42.276  1.00  0.00    -0.646 OA
HETATM    4  O15         0       4.493 -35.888  40.280  1.00  0.00    -0.646 OA
ENDBRANCH   1   2
BRANCH   1   5
HETATM    5  N11         0       3.020 -38.248  40.975  1.00  0.00    -0.065 N 
HETATM    6  H12         0       3.938 -38.484  40.627  1.00  0.00     0.275 HD
HETATM    7  H13         0       2.663 -39.014  41.525  1.00  0.00     0.275 HD
HETATM    8  H14         0       2.400 -38.073  40.198  1.00  0.00     0.275 HD
ENDBRANCH   1   5
BRANCH   1   9
HETATM    9  C4          0       1.865 -36.181  41.596  1.00  0.00     0.044 C 
BRANCH   9  10
HETATM   10  C5          0       1.041 -36.752  40.440  1.00  0.00     0.004 C 
BRANCH  10  11
HETATM   11  C6          0      -0.372 -37.076  40.932  1.00  0.00     0.030 C 
BRANCH  11  12
HETATM   12  C7          0      -1.301 -35.899  40.625  1.00  0.00     0.267 C 
BRANCH  12  13
HETATM   13  N8          0      -0.883 -35.260  39.371  1.00  0.00     0.078 N 
HETATM   14  H9          0      -1.681 -34.955  38.836  1.00  0.00     0.312 HD
HETATM   15  H10         0      -0.252 -34.492  39.549  1.00  0.00     0.312 HD
ENDBRANCH  12  13
ENDBRANCH  11  12
ENDBRANCH  10  11
ENDBRANCH   9  10
ENDBRANCH   1   9
TORSDOF 7
ENDMDL
