MODEL 1
REMARK VINA RESULT:      -5.4      0.000      0.000
REMARK  6 active torsions:
REMARK  status: ('A' for Active; 'I' for Inactive)
REMARK    1  A    between atoms: N3_3  and  C6_6 
REMARK    2  A    between atoms: N4_4  and  C8_8 
REMARK    3  A    between atoms: C5_5  and  C7_7 
REMARK    4  A    between atoms: C5_5  and  C6_6 
REMARK    5  A    between atoms: C6_6  and  C9_9 
REMARK    6  A    between atoms: C7_7  and  C8_8 
ROOT
HETATM    1  C6          0       5.434 -38.291  26.133  1.00  0.00     0.283 C 
ENDROOT
BRANCH   1   2
HETATM    2  N3          0       5.646 -39.650  26.724  1.00  0.00    -0.065 N 
HETATM    3  H19         0       6.471 -39.658  27.339  1.00  0.00     0.275 HD
HETATM    4  H18         0       4.842 -39.953  27.289  1.00  0.00     0.275 HD
HETATM    5  H17         0       5.805 -40.363  25.997  1.00  0.00     0.275 HD
ENDBRANCH   1   2
BRANCH   1   6
HETATM    6  C5          0       5.672 -38.401  24.621  1.00  0.00     0.045 C 
BRANCH   6   7
HETATM    7  C7          0       6.548 -39.590  24.200  1.00  0.00     0.032 C 
BRANCH   7   8
HETATM    8  C8          0       7.004 -39.446  22.748  1.00  0.00     0.267 C 
BRANCH   8   9
HETATM    9  N4          0       5.910 -38.956  21.919  1.00  0.00     0.078 N 
HETATM   10  H21         0       5.032 -39.359  22.245  1.00  0.00     0.312 HD
HETATM   11  H20         0       5.820 -37.947  22.029  1.00  0.00     0.312 HD
ENDBRANCH   8   9
ENDBRANCH   7   8
ENDBRANCH   6   7
ENDBRANCH   1   6
BRANCH   1  12
HETATM   12  C9          0       4.112 -37.620  26.546  1.00  0.00     0.204 C 
HETATM   13  O2          0       3.432 -37.120  25.607  1.00  0.00    -0.646 OA
HETATM   14  O1          0       3.846 -37.672  27.781  1.00  0.00    -0.646 OA
ENDBRANCH   1  12
TORSDOF 6
ENDMDL
MODEL 2
REMARK VINA RESULT:      -5.1      2.988      4.387
REMARK  6 active torsions:
REMARK  status: ('A' for Active; 'I' for Inactive)
REMARK    1  A    between atoms: N3_3  and  C6_6 
REMARK    2  A    between atoms: N4_4  and  C8_8 
REMARK    3  A    between atoms: C5_5  and  C7_7 
REMARK    4  A    between atoms: C5_5  and  C6_6 
REMARK    5  A    between atoms: C6_6  and  C9_9 
REMARK    6  A    between atoms: C7_7  and  C8_8 
ROOT
HETATM    1  C6          0       6.075 -39.235  24.680  1.00  0.00     0.283 C 
ENDROOT
BRANCH   1   2
HETATM    2  N3          0       6.469 -40.453  25.455  1.00  0.00    -0.065 N 
HETATM    3  H19         0       5.675 -41.100  25.551  1.00  0.00     0.275 HD
HETATM    4  H18         0       7.230 -40.970  24.996  1.00  0.00     0.275 HD
HETATM    5  H17         0       6.782 -40.215  26.408  1.00  0.00     0.275 HD
ENDBRANCH   1   2
BRANCH   1   6
HETATM    6  C5          0       5.886 -38.088  25.683  1.00  0.00     0.045 C 
BRANCH   6   7
HETATM    7  C7          0       4.471 -37.492  25.709  1.00  0.00     0.032 C 
BRANCH   7   8
HETATM    8  C8          0       3.808 -37.715  27.068  1.00  0.00     0.267 C 
BRANCH   8   9
HETATM    9  N4          0       4.582 -38.664  27.860  1.00  0.00     0.078 N 
HETATM   10  H21         0       5.556 -38.641  27.560  1.00  0.00     0.312 HD
HETATM   11  H20         0       4.578 -38.378  28.839  1.00  0.00     0.312 HD
ENDBRANCH   8   9
ENDBRANCH   7   8
ENDBRANCH   6   7
ENDBRANCH   1   6
BRANCH   1  12
HETATM   12  C9          0       6.989 -38.921  23.483  1.00  0.00     0.204 C 
HETATM   13  O2          0       8.155 -38.528  23.770  1.00  0.00    -0.646 OA
HETATM   14  O1          0       6.474 -39.121  22.346  1.00  0.00    -0.646 OA
ENDBRANCH   1  12
TORSDOF 6
ENDMDL
MODEL 3
REMARK VINA RESULT:      -5.0      8.523      9.175
REMARK  6 active torsions:
REMARK  status: ('A' for Active; 'I' for Inactive)
REMARK    1  A    between atoms: N3_3  and  C6_6 
REMARK    2  A    between atoms: N4_4  and  C8_8 
REMARK    3  A    between atoms: C5_5  and  C7_7 
REMARK    4  A    between atoms: C5_5  and  C6_6 
REMARK    5  A    between atoms: C6_6  and  C9_9 
REMARK    6  A    between atoms: C7_7  and  C8_8 
ROOT
HETATM    1  C6          0       1.060 -38.450  32.087  1.00  0.00     0.283 C 
ENDROOT
BRANCH   1   2
HETATM    2  N3          0       1.302 -39.115  33.406  1.00  0.00    -0.065 N 
HETATM    3  H19         0       2.309 -39.188  33.601  1.00  0.00     0.275 HD
HETATM    4  H18         0       0.878 -38.592  34.183  1.00  0.00     0.275 HD
HETATM    5  H17         0       0.920 -40.072  33.427  1.00  0.00     0.275 HD
ENDBRANCH   1   2
BRANCH   1   6
HETATM    6  C5          0       0.565 -39.525  31.110  1.00  0.00     0.045 C 
BRANCH   6   7
HETATM    7  C7          0      -0.232 -40.661  31.765  1.00  0.00     0.032 C 
BRANCH   7   8
HETATM    8  C8          0      -1.707 -40.593  31.369  1.00  0.00     0.267 C 
BRANCH   8   9
HETATM    9  N4          0      -2.413 -39.631  32.206  1.00  0.00     0.078 N 
HETATM   10  H21         0      -2.405 -39.953  33.173  1.00  0.00     0.312 HD
HETATM   11  H20         0      -1.918 -38.740  32.198  1.00  0.00     0.312 HD
ENDBRANCH   8   9
ENDBRANCH   7   8
ENDBRANCH   6   7
ENDBRANCH   1   6
BRANCH   1  12
HETATM   12  C9          0       0.195 -37.180  32.166  1.00  0.00     0.204 C 
HETATM   13  O2          0      -0.778 -37.126  31.362  1.00  0.00    -0.646 OA
HETATM   14  O1          0       0.543 -36.347  33.051  1.00  0.00    -0.646 OA
ENDBRANCH   1  12
TORSDOF 6
ENDMDL
MODEL 4
REMARK VINA RESULT:      -4.7      2.806      4.502
REMARK  6 active torsions:
REMARK  status: ('A' for Active; 'I' for Inactive)
REMARK    1  A    between atoms: N3_3  and  C6_6 
REMARK    2  A    between atoms: N4_4  and  C8_8 
REMARK    3  A    between atoms: C5_5  and  C7_7 
REMARK    4  A    between atoms: C5_5  and  C6_6 
REMARK    5  A    between atoms: C6_6  and  C9_9 
REMARK    6  A    between atoms: C7_7  and  C8_8 
ROOT
HETATM    1  C6          0       6.150 -38.921  22.205  1.00  0.00     0.283 C 
ENDROOT
BRANCH   1   2
HETATM    2  N3          0       6.938 -39.916  21.412  1.00  0.00    -0.065 N 
HETATM    3  H19         0       6.354 -40.352  20.686  1.00  0.00     0.275 HD
HETATM    4  H18         0       7.739 -39.480  20.937  1.00  0.00     0.275 HD
HETATM    5  H17         0       7.301 -40.676  22.005  1.00  0.00     0.275 HD
ENDBRANCH   1   2
BRANCH   1   6
HETATM    6  C5          0       7.086 -38.329  23.268  1.00  0.00     0.045 C 
BRANCH   6   7
HETATM    7  C7          0       7.100 -39.094  24.599  1.00  0.00     0.032 C 
BRANCH   7   8
HETATM    8  C8          0       5.791 -38.892  25.361  1.00  0.00     0.267 C 
BRANCH   8   9
HETATM    9  N4          0       5.772 -39.715  26.564  1.00  0.00     0.078 N 
HETATM   10  H21         0       6.128 -40.645  26.343  1.00  0.00     0.312 HD
HETATM   11  H20         0       6.407 -39.324  27.259  1.00  0.00     0.312 HD
ENDBRANCH   8   9
ENDBRANCH   7   8
ENDBRANCH   6   7
ENDBRANCH   1   6
BRANCH   1  12
HETATM   12  C9          0       5.387 -37.892  21.351  1.00  0.00     0.204 C 
HETATM   13  O2          0       6.100 -37.132  20.637  1.00  0.00    -0.646 OA
HETATM   14  O1          0       4.127 -37.946  21.443  1.00  0.00    -0.646 OA
ENDBRANCH   1  12
TORSDOF 6
ENDMDL
MODEL 5
REMARK VINA RESULT:      -4.6      9.067      9.407
REMARK  6 active torsions:
REMARK  status: ('A' for Active; 'I' for Inactive)
REMARK    1  A    between atoms: N3_3  and  C6_6 
REMARK    2  A    between atoms: N4_4  and  C8_8 
REMARK    3  A    between atoms: C5_5  and  C7_7 
REMARK    4  A    between atoms: C5_5  and  C6_6 
REMARK    5  A    between atoms: C6_6  and  C9_9 
REMARK    6  A    between atoms: C7_7  and  C8_8 
ROOT
HETATM    1  C6          0      -0.425 -38.737  31.456  1.00  0.00     0.283 C 
ENDROOT
BRANCH   1   2
HETATM    2  N3          0      -1.305 -39.617  32.286  1.00  0.00    -0.065 N 
HETATM    3  H19         0      -1.596 -40.449  31.756  1.00  0.00     0.275 HD
HETATM    4  H18         0      -0.826 -39.950  33.134  1.00  0.00     0.275 HD
HETATM    5  H17         0      -2.163 -39.131  32.582  1.00  0.00     0.275 HD
ENDBRANCH   1   2
BRANCH   1   6
HETATM    6  C5          0      -1.334 -37.786  30.666  1.00  0.00     0.045 C 
BRANCH   6   7
HETATM    7  C7          0      -2.217 -38.476  29.617  1.00  0.00     0.032 C 
BRANCH   7   8
HETATM    8  C8          0      -3.689 -38.113  29.817  1.00  0.00     0.267 C 
BRANCH   8   9
HETATM    9  N4          0      -3.835 -36.676  30.016  1.00  0.00     0.078 N 
HETATM   10  H21         0      -3.237 -36.181  29.355  1.00  0.00     0.312 HD
HETATM   11  H20         0      -4.791 -36.394  29.802  1.00  0.00     0.312 HD
ENDBRANCH   8   9
ENDBRANCH   7   8
ENDBRANCH   6   7
ENDBRANCH   1   6
BRANCH   1  12
HETATM   12  C9          0       0.716 -38.062  32.238  1.00  0.00     0.204 C 
HETATM   13  O2          0       0.530 -36.850  32.547  1.00  0.00    -0.646 OA
HETATM   14  O1          0       1.699 -38.809  32.507  1.00  0.00    -0.646 OA
ENDBRANCH   1  12
TORSDOF 6
ENDMDL
MODEL 6
REMARK VINA RESULT:      -4.6      8.677      9.258
REMARK  6 active torsions:
REMARK  status: ('A' for Active; 'I' for Inactive)
REMARK    1  A    between atoms: N3_3  and  C6_6 
REMARK    2  A    between atoms: N4_4  and  C8_8 
REMARK    3  A    between atoms: C5_5  and  C7_7 
REMARK    4  A    between atoms: C5_5  and  C6_6 
REMARK    5  A    between atoms: C6_6  and  C9_9 
REMARK    6  A    between atoms: C7_7  and  C8_8 
ROOT
HETATM    1  C6          0      -1.114 -38.191  31.317  1.00  0.00     0.283 C 
ENDROOT
BRANCH   1   2
HETATM    2  N3          0      -1.896 -37.131  30.607  1.00  0.00    -0.065 N 
HETATM    3  H19         0      -1.558 -37.010  29.643  1.00  0.00     0.275 HD
HETATM    4  H18         0      -2.896 -37.364  30.551  1.00  0.00     0.275 HD
HETATM    5  H17         0      -1.813 -36.217  31.074  1.00  0.00     0.275 HD
ENDBRANCH   1   2
BRANCH   1   6
HETATM    6  C5          0      -1.222 -39.479  30.489  1.00  0.00     0.045 C 
BRANCH   6   7
HETATM    7  C7          0      -1.773 -40.687  31.259  1.00  0.00     0.032 C 
BRANCH   7   8
HETATM    8  C8          0      -0.638 -41.539  31.826  1.00  0.00     0.267 C 
BRANCH   8   9
HETATM    9  N4          0      -1.003 -42.950  31.802  1.00  0.00     0.078 N 
HETATM   10  H21         0      -1.915 -43.071  32.241  1.00  0.00     0.312 HD
HETATM   11  H20         0      -1.107 -43.263  30.837  1.00  0.00     0.312 HD
ENDBRANCH   8   9
ENDBRANCH   7   8
ENDBRANCH   6   7
ENDBRANCH   1   6
BRANCH   1  12
HETATM   12  C9          0       0.315 -37.773  31.704  1.00  0.00     0.204 C 
HETATM   13  O2          0       1.248 -38.410  31.139  1.00  0.00    -0.646 OA
HETATM   14  O1          0       0.390 -36.815  32.527  1.00  0.00    -0.646 OA
ENDBRANCH   1  12
TORSDOF 6
ENDMDL
MODEL 7
REMARK VINA RESULT:      -4.4      8.158      9.144
REMARK  6 active torsions:
REMARK  status: ('A' for Active; 'I' for Inactive)
REMARK    1  A    between atoms: N3_3  and  C6_6 
REMARK    2  A    between atoms: N4_4  and  C8_8 
REMARK    3  A    between atoms: C5_5  and  C7_7 
REMARK    4  A    between atoms: C5_5  and  C6_6 
REMARK    5  A    between atoms: C6_6  and  C9_9 
REMARK    6  A    between atoms: C7_7  and  C8_8 
ROOT
HETATM    1  C6          0       0.577 -38.395  31.425  1.00  0.00     0.283 C 
ENDROOT
BRANCH   1   2
HETATM    2  N3          0       1.123 -38.892  30.123  1.00  0.00    -0.065 N 
HETATM    3  H19         0       2.098 -38.589  29.995  1.00  0.00     0.275 HD
HETATM    4  H18         0       1.115 -39.919  30.070  1.00  0.00     0.275 HD
HETATM    5  H17         0       0.588 -38.532  29.321  1.00  0.00     0.275 HD
ENDBRANCH   1   2
BRANCH   1   6
HETATM    6  C5          0      -0.869 -37.943  31.178  1.00  0.00     0.045 C 
BRANCH   6   7
HETATM    7  C7          0      -1.554 -38.626  29.986  1.00  0.00     0.032 C 
BRANCH   7   8
HETATM    8  C8          0      -2.431 -39.789  30.452  1.00  0.00     0.267 C 
BRANCH   8   9
HETATM    9  N4          0      -2.682 -39.692  31.885  1.00  0.00     0.078 N 
HETATM   10  H21         0      -3.133 -38.801  32.090  1.00  0.00     0.312 HD
HETATM   11  H20         0      -3.341 -40.417  32.168  1.00  0.00     0.312 HD
ENDBRANCH   8   9
ENDBRANCH   7   8
ENDBRANCH   6   7
ENDBRANCH   1   6
BRANCH   1  12
HETATM   12  C9          0       0.774 -39.362  32.605  1.00  0.00     0.204 C 
HETATM   13  O2          0       0.419 -40.558  32.403  1.00  0.00    -0.646 OA
HETATM   14  O1          0       1.297 -38.851  33.637  1.00  0.00    -0.646 OA
ENDBRANCH   1  12
TORSDOF 6
ENDMDL
MODEL 8
REMARK VINA RESULT:      -4.4      8.909      9.384
REMARK  6 active torsions:
REMARK  status: ('A' for Active; 'I' for Inactive)
REMARK    1  A    between atoms: N3_3  and  C6_6 
REMARK    2  A    between atoms: N4_4  and  C8_8 
REMARK    3  A    between atoms: C5_5  and  C7_7 
REMARK    4  A    between atoms: C5_5  and  C6_6 
REMARK    5  A    between atoms: C6_6  and  C9_9 
REMARK    6  A    between atoms: C7_7  and  C8_8 
ROOT
HETATM    1  C6          0      -1.596 -38.736  31.085  1.00  0.00     0.283 C 
ENDROOT
BRANCH   1   2
HETATM    2  N3          0      -2.157 -39.619  32.155  1.00  0.00    -0.065 N 
HETATM    3  H19         0      -1.607 -39.539  33.021  1.00  0.00     0.275 HD
HETATM    4  H18         0      -3.128 -39.372  32.387  1.00  0.00     0.275 HD
HETATM    5  H17         0      -2.143 -40.611  31.879  1.00  0.00     0.275 HD
ENDBRANCH   1   2
BRANCH   1   6
HETATM    6  C5          0      -0.121 -39.115  30.897  1.00  0.00     0.045 C 
BRANCH   6   7
HETATM    7  C7          0       0.845 -38.405  31.856  1.00  0.00     0.032 C 
BRANCH   7   8
HETATM    8  C8          0       1.446 -39.392  32.857  1.00  0.00     0.267 C 
BRANCH   8   9
HETATM    9  N4          0       1.495 -38.797  34.188  1.00  0.00     0.078 N 
HETATM   10  H21         0       2.310 -38.188  34.256  1.00  0.00     0.312 HD
HETATM   11  H20         0       0.680 -38.201  34.328  1.00  0.00     0.312 HD
ENDBRANCH   8   9
ENDBRANCH   7   8
ENDBRANCH   6   7
ENDBRANCH   1   6
BRANCH   1  12
HETATM   12  C9          0      -2.435 -38.691  29.796  1.00  0.00     0.204 C 
HETATM   13  O2          0      -2.387 -39.725  29.071  1.00  0.00    -0.646 OA
HETATM   14  O1          0      -3.101 -37.630  29.625  1.00  0.00    -0.646 OA
ENDBRANCH   1  12
TORSDOF 6
ENDMDL
MODEL 9
REMARK VINA RESULT:      -4.3     14.696     15.678
REMARK  6 active torsions:
REMARK  status: ('A' for Active; 'I' for Inactive)
REMARK    1  A    between atoms: N3_3  and  C6_6 
REMARK    2  A    between atoms: N4_4  and  C8_8 
REMARK    3  A    between atoms: C5_5  and  C7_7 
REMARK    4  A    between atoms: C5_5  and  C6_6 
REMARK    5  A    between atoms: C6_6  and  C9_9 
REMARK    6  A    between atoms: C7_7  and  C8_8 
ROOT
HETATM    1  C6          0      15.718 -46.643  31.869  1.00  0.00     0.283 C 
ENDROOT
BRANCH   1   2
HETATM    2  N3          0      16.583 -47.638  31.159  1.00  0.00    -0.065 N 
HETATM    3  H19         0      16.169 -48.579  31.201  1.00  0.00     0.275 HD
HETATM    4  H18         0      16.702 -47.402  30.166  1.00  0.00     0.275 HD
HETATM    5  H17         0      17.520 -47.700  31.582  1.00  0.00     0.275 HD
ENDBRANCH   1   2
BRANCH   1   6
HETATM    6  C5          0      16.395 -46.313  33.207  1.00  0.00     0.045 C 
BRANCH   6   7
HETATM    7  C7          0      15.513 -46.549  34.441  1.00  0.00     0.032 C 
BRANCH   7   8
HETATM    8  C8          0      15.796 -47.917  35.062  1.00  0.00     0.267 C 
BRANCH   8   9
HETATM    9  N4          0      17.226 -48.200  35.037  1.00  0.00     0.078 N 
HETATM   10  H21         0      17.742 -47.324  34.962  1.00  0.00     0.312 HD
HETATM   11  H20         0      17.508 -48.622  35.921  1.00  0.00     0.312 HD
ENDBRANCH   8   9
ENDBRANCH   7   8
ENDBRANCH   6   7
ENDBRANCH   1   6
BRANCH   1  12
HETATM   12  C9          0      15.316 -45.429  31.015  1.00  0.00     0.204 C 
HETATM   13  O2          0      15.373 -44.306  31.592  1.00  0.00    -0.646 OA
HETATM   14  O1          0      15.001 -45.693  29.819  1.00  0.00    -0.646 OA
ENDBRANCH   1  12
TORSDOF 6
ENDMDL
